examples/test_perturbation_outputs/pert_min_loss/pglib_opf_case300_ieee.m
%% MATPOWER Case Format : Version 2
function mpc = pglib_opf_case300_ieee
mpc.version = '2';

%%-----  Power Flow Data  -----%%
%% system MVA base
mpc.baseMVA = 100.0;
%% bus data
%    bus_i    type    Pd    Qd    Gs    Bs    area    Vm    Va    baseKV    zone    Vmax    Vmin
mpc.bus = [
	1	1	90.0	49.0	0.0	0.0	1	1.0	0.0	115.0	1	1.06	0.94				
	2	1	56.00000000000001	15.0	0.0	0.0	1	1.0	0.0	115.0	1	1.06	0.94				
	3	1	20.0	0.0	0.0	0.0	1	1.0	0.0	230.0	1	1.06	0.94				
	4	1	0.0	0.0	0.0	0.0	1	1.0	0.0	345.0	1	1.06	0.94				
	5	1	353.0	130.0	0.0	0.0	1	1.0	0.0	115.0	1	1.06	0.94				
	6	1	120.0	41.0	0.0	0.0	1	1.0	0.0	115.0	1	1.06	0.94				
	7	1	0.0	0.0	0.0	0.0	1	1.0	0.0	230.0	1	1.06	0.94				
	8	2	63.0	14.000000000000002	0.0	0.0	1	1.0	0.0	115.0	1	1.06	0.94				
	9	1	96.0	43.0	0.0	0.0	1	1.0	0.0	115.0	1	1.06	0.94				
	10	2	153.0	33.0	0.0	0.0	1	1.0	0.0	230.0	1	1.06	0.94				
	11	1	83.0	21.0	0.0	0.0	1	1.0	0.0	115.0	1	1.06	0.94				
	12	1	0.0	0.0	0.0	0.0	1	1.0	0.0	230.0	1	1.06	0.94				
	13	1	57.99999999999999	10.0	0.0	0.0	1	1.0	0.0	115.0	1	1.06	0.94				
	14	1	160.0	60.0	0.0	0.0	1	1.0	0.0	115.0	1	1.06	0.94				
	15	1	126.70000000000002	23.0	0.0	0.0	1	1.0	0.0	115.0	1	1.06	0.94				
	16	1	0.0	0.0	0.0	0.0	1	1.0	0.0	345.0	1	1.06	0.94				
	17	1	561.0	220.00000000000003	0.0	0.0	1	1.0	0.0	115.0	1	1.06	0.94				
	19	1	0.0	0.0	0.0	0.0	1	1.0	0.0	230.0	1	1.06	0.94				
	20	2	605.0	120.0	0.0	0.0	1	1.0	0.0	115.0	1	1.06	0.94				
	21	1	77.0	1.0	0.0	0.0	1	1.0	0.0	230.0	1	1.06	0.94				
	22	1	81.0	23.0	0.0	0.0	1	1.0	0.0	115.0	1	1.06	0.94				
	23	1	21.0	7.000000000000001	0.0	0.0	1	1.0	0.0	115.0	1	1.06	0.94				
	24	1	0.0	0.0	0.0	0.0	1	1.0	0.0	230.0	1	1.06	0.94				
	25	1	45.0	12.0	0.0	0.0	1	1.0	0.0	115.0	1	1.06	0.94				
	26	1	28.000000000000004	9.0	0.0	0.0	1	1.0	0.0	115.0	1	1.06	0.94				
	27	1	69.0	13.0	0.0	0.0	1	1.0	0.0	115.0	1	1.06	0.94				
	33	1	55.00000000000001	6.0	0.0	0.0	1	1.0	0.0	115.0	1	1.06	0.94				
	34	1	0.0	0.0	0.0	0.0	1	1.0	0.0	345.0	1	1.06	0.94				
	35	1	0.0	0.0	0.0	0.0	1	1.0	0.0	115.0	1	1.06	0.94				
	36	1	0.0	0.0	0.0	0.0	1	1.0	0.0	230.0	1	1.06	0.94				
	37	1	85.0	32.0	0.0	0.0	1	1.0	0.0	115.0	1	1.06	0.94				
	38	1	155.0	18.0	0.0	0.0	1	1.0	0.0	115.0	1	1.06	0.94				
	39	1	0.0	0.0	0.0	0.0	1	1.0	0.0	345.0	1	1.06	0.94				
	40	1	46.0	-21.0	0.0	0.0	1	1.0	0.0	115.0	1	1.06	0.94				
	41	1	86.0	0.0	0.0	0.0	1	1.0	0.0	115.0	1	1.06	0.94				
	42	1	0.0	0.0	0.0	0.0	1	1.0	0.0	345.0	1	1.06	0.94				
	43	1	39.0	9.0	0.0	0.0	1	1.0	0.0	115.0	1	1.06	0.94				
	44	1	195.0	28.999999999999996	0.0	0.0	1	1.0	0.0	115.0	1	1.06	0.94				
	45	1	0.0	0.0	0.0	0.0	1	1.0	0.0	230.0	1	1.06	0.94				
	46	1	0.0	0.0	0.0	0.0	1	1.0	0.0	345.0	1	1.06	0.94				
	47	1	57.99999999999999	11.8	0.0	0.0	1	1.0	0.0	115.0	1	1.06	0.94				
	48	1	41.0	19.0	0.0	0.0	1	1.0	0.0	115.0	1	1.06	0.94				
	49	1	92.0	26.0	0.0	0.0	1	1.0	0.0	115.0	1	1.06	0.94				
	51	1	-5.0	5.0	0.0	0.0	1	1.0	0.0	115.0	1	1.06	0.94				
	52	1	61.0	28.000000000000004	0.0	0.0	1	1.0	0.0	115.0	1	1.06	0.94				
	53	1	69.0	3.0	0.0	0.0	1	1.0	0.0	115.0	1	1.06	0.94				
	54	1	10.0	1.0	0.0	0.0	1	1.0	0.0	115.0	1	1.06	0.94				
	55	1	22.0	10.0	0.0	0.0	1	1.0	0.0	115.0	1	1.06	0.94				
	57	1	98.0	20.0	0.0	0.0	1	1.0	0.0	115.0	1	1.06	0.94				
	58	1	14.000000000000002	1.0	0.0	0.0	1	1.0	0.0	115.0	1	1.06	0.94				
	59	1	218.00000000000003	106.0	0.0	0.0	1	1.0	0.0	115.0	1	1.06	0.94				
	60	1	0.0	0.0	0.0	0.0	1	1.0	0.0	230.0	1	1.06	0.94				
	61	1	227.0	110.00000000000001	0.0	0.0	1	1.0	0.0	115.0	1	1.06	0.94				
	62	1	0.0	0.0	0.0	0.0	1	1.0	0.0	230.0	1	1.06	0.94				
	63	2	70.0	30.0	0.0	0.0	1	1.0	0.0	115.0	1	1.06	0.94				
	64	1	0.0	0.0	0.0	0.0	1	1.0	0.0	230.0	1	1.06	0.94				
	69	1	0.0	0.0	0.0	0.0	1	1.0	0.0	115.0	1	1.06	0.94				
	70	1	56.00000000000001	20.0	0.0	0.0	1	1.0	0.0	115.0	1	1.06	0.94				
	71	1	115.99999999999999	38.0	0.0	0.0	1	1.0	0.0	115.0	1	1.06	0.94				
	72	1	56.99999999999999	19.0	0.0	0.0	1	1.0	0.0	115.0	1	1.06	0.94				
	73	1	224.00000000000003	71.0	0.0	0.0	1	1.0	0.0	115.0	1	1.06	0.94				
	74	1	0.0	0.0	0.0	0.0	1	1.0	0.0	230.0	1	1.06	0.94				
	76	2	208.0	107.0	0.0	0.0	1	1.0	0.0	115.0	1	1.06	0.94				
	77	1	74.0	28.000000000000004	0.0	0.0	1	1.0	0.0	115.0	1	1.06	0.94				
	78	1	0.0	0.0	0.0	0.0	1	1.0	0.0	115.0	1	1.06	0.94				
	79	1	48.0	14.000000000000002	0.0	0.0	1	1.0	0.0	115.0	1	1.06	0.94				
	80	1	28.000000000000004	7.000000000000001	0.0	0.0	1	1.0	0.0	115.0	1	1.06	0.94				
	81	1	0.0	0.0	0.0	0.0	1	1.0	0.0	345.0	1	1.06	0.94				
	84	2	37.0	13.0	0.0	0.0	1	1.0	0.0	115.0	1	1.06	0.94				
	85	1	0.0	0.0	0.0	0.0	1	1.0	0.0	230.0	1	1.06	0.94				
	86	1	0.0	0.0	0.0	0.0	1	1.0	0.0	230.0	1	1.06	0.94				
	87	1	0.0	0.0	0.0	0.0	1	1.0	0.0	230.0	1	1.06	0.94				
	88	1	0.0	0.0	0.0	0.0	1	1.0	0.0	230.0	1	1.06	0.94				
	89	1	44.2	0.0	0.0	0.0	1	1.0	0.0	115.0	1	1.06	0.94				
	90	1	66.0	0.0	0.0	0.0	1	1.0	0.0	115.0	1	1.06	0.94				
	91	2	17.4	0.0	0.0	0.0	1	1.0	0.0	115.0	1	1.06	0.94				
	92	2	15.8	0.0	0.0	0.0	1	1.0	0.0	115.0	1	1.06	0.94				
	94	1	60.3	0.0	0.0	0.0	1	1.0	0.0	115.0	1	1.06	0.94				
	97	1	39.9	0.0	0.0	0.0	1	1.0	0.0	115.0	1	1.06	0.94				
	98	2	66.7	0.0	0.0	0.0	1	1.0	0.0	115.0	1	1.06	0.94				
	99	1	83.5	0.0	0.0	0.0	1	1.0	0.0	115.0	1	1.06	0.94				
	100	1	0.0	0.0	0.0	0.0	1	1.0	0.0	115.0	1	1.06	0.94				
	102	1	77.8	0.0	0.0	0.0	1	1.0	0.0	115.0	1	1.06	0.94				
	103	1	32.0	0.0	0.0	0.0	1	1.0	0.0	115.0	1	1.06	0.94				
	104	1	8.6	0.0	0.0	0.0	1	1.0	0.0	115.0	1	1.06	0.94				
	105	1	49.6	0.0	0.0	0.0	1	1.0	0.0	115.0	1	1.06	0.94				
	107	1	4.6	0.0	0.0	0.0	1	1.0	0.0	115.0	1	1.06	0.94				
	108	2	112.1	0.0	0.0	0.0	1	1.0	0.0	115.0	1	1.06	0.94				
	109	1	30.7	0.0	0.0	0.0	1	1.0	0.0	115.0	1	1.06	0.94				
	110	1	63.0	0.0	0.0	0.0	1	1.0	0.0	115.0	1	1.06	0.94				
	112	1	19.6	0.0	0.0	0.0	1	1.0	0.0	115.0	1	1.06	0.94				
	113	1	26.200000000000003	0.0	0.0	0.0	1	1.0	0.0	115.0	1	1.06	0.94				
	114	1	18.2	0.0	0.0	0.0	1	1.0	0.0	115.0	1	1.06	0.94				
	115	1	0.0	0.0	0.0	0.0	1	1.0	0.0	115.0	2	1.06	0.94				
	116	1	0.0	0.0	0.0	0.0	1	1.0	0.0	115.0	2	1.06	0.94				
	117	1	0.0	0.0	0.0	325.0	1	1.0	0.0	115.0	2	1.06	0.94				
	118	1	14.099999999999998	650.0	0.0	0.0	1	1.0	0.0	115.0	2	1.06	0.94				
	119	2	0.0	0.0	0.0	0.0	1	1.0	0.0	115.0	2	1.06	0.94				
	120	1	777.0	215.0	0.0	55.00000000000001	1	1.0	0.0	115.0	2	1.06	0.94				
	121	1	535.0	55.00000000000001	0.0	0.0	1	1.0	0.0	115.0	2	1.06	0.94				
	122	1	229.1	11.8	0.0	0.0	1	1.0	0.0	115.0	2	1.06	0.94				
	123	1	78.0	1.4	0.0	0.0	1	1.0	0.0	115.0	2	1.06	0.94				
	124	2	276.4	59.3	0.0	0.0	1	1.0	0.0	115.0	2	1.06	0.94				
	125	2	514.8	82.7	0.0	0.0	1	1.0	0.0	115.0	2	1.06	0.94				
	126	1	57.9	5.1	0.0	0.0	1	1.0	0.0	115.0	2	1.06	0.94				
	127	1	380.8	37.0	0.0	0.0	1	1.0	0.0	230.0	2	1.06	0.94				
	128	1	0.0	0.0	0.0	0.0	1	1.0	0.0	230.0	2	1.06	0.94				
	129	1	0.0	0.0	0.0	0.0	1	1.0	0.0	230.0	2	1.06	0.94				
	130	1	0.0	0.0	0.0	0.0	1	1.0	0.0	230.0	2	1.06	0.94				
	131	1	0.0	0.0	0.0	0.0	1	1.0	0.0	230.0	2	1.06	0.94				
	132	1	0.0	0.0	0.0	0.0	1	1.0	0.0	230.0	2	1.06	0.94				
	133	1	0.0	0.0	0.0	0.0	1	1.0	0.0	230.0	2	1.06	0.94				
	134	1	0.0	0.0	0.0	0.0	1	1.0	0.0	230.0	2	1.06	0.94				
	135	1	169.2	41.6	0.0	0.0	1	1.0	0.0	230.0	2	1.06	0.94				
	136	1	55.2	18.2	0.0	0.0	1	1.0	0.0	230.0	2	1.06	0.94				
	137	1	273.6	99.8	0.0	0.0	1	1.0	0.0	230.0	2	1.06	0.94				
	138	2	1019.2	135.2	0.0	0.0	1	1.0	0.0	230.0	2	1.06	0.94				
	139	1	595.0	83.3	0.0	0.0	1	1.0	0.0	115.0	2	1.06	0.94				
	140	1	387.7	114.7	0.0	0.0	1	1.0	0.0	230.0	2	1.06	0.94				
	141	2	145.0	57.99999999999999	0.0	0.0	1	1.0	0.0	230.0	2	1.06	0.94				
	142	1	56.49999999999999	24.5	0.0	0.0	1	1.0	0.0	230.0	2	1.06	0.94				
	143	2	89.5	35.5	0.0	0.0	1	1.0	0.0	230.0	2	1.06	0.94				
	144	1	0.0	0.0	0.0	0.0	1	1.0	0.0	230.0	2	1.06	0.94				
	145	1	24.0	14.000000000000002	0.0	0.0	1	1.0	0.0	230.0	2	1.06	0.94				
	146	2	0.0	0.0	0.0	0.0	1	1.0	0.0	230.0	2	1.06	0.94				
	147	2	0.0	0.0	0.0	0.0	1	1.0	0.0	230.0	2	1.06	0.94				
	148	1	63.0	25.0	0.0	0.0	1	1.0	0.0	230.0	2	1.06	0.94				
	149	2	0.0	0.0	0.0	0.0	1	1.0	0.0	230.0	2	1.06	0.94				
	150	1	0.0	0.0	0.0	0.0	1	1.0	0.0	230.0	2	1.06	0.94				
	151	1	0.0	0.0	0.0	0.0	1	1.0	0.0	230.0	2	1.06	0.94				
	152	2	17.0	9.0	0.0	0.0	1	1.0	0.0	230.0	2	1.06	0.94				
	153	2	0.0	0.0	0.0	0.0	1	1.0	0.0	230.0	2	1.06	0.94				
	154	1	70.0	5.0	0.0	34.5	1	1.0	0.0	115.0	2	1.06	0.94				
	155	1	200.0	50.0	0.0	0.0	1	1.0	0.0	230.0	2	1.06	0.94				
	156	2	75.0	50.0	0.0	0.0	1	1.0	0.0	115.0	2	1.06	0.94				
	157	1	123.50000000000001	-24.3	0.0	0.0	1	1.0	0.0	230.0	2	1.06	0.94				
	158	1	0.0	0.0	0.0	0.0	1	1.0	0.0	230.0	2	1.06	0.94				
	159	1	33.0	16.5	0.0	0.0	1	1.0	0.0	230.0	2	1.06	0.94				
	160	1	0.0	0.0	0.0	0.0	1	1.0	0.0	230.0	2	1.06	0.94				
	161	1	35.0	15.0	0.0	0.0	1	1.0	0.0	230.0	2	1.06	0.94				
	162	1	85.0	24.0	0.0	0.0	1	1.0	0.0	230.0	2	1.06	0.94				
	163	1	0.0	0.4	0.0	0.0	1	1.0	0.0	230.0	2	1.06	0.94				
	164	1	0.0	0.0	0.0	-212.0	1	1.0	0.0	230.0	2	1.06	0.94				
	165	1	0.0	0.0	0.0	0.0	1	1.0	0.0	230.0	2	1.06	0.94				
	166	1	0.0	0.0	0.0	-103.0	1	1.0	0.0	230.0	2	1.06	0.94				
	167	1	299.9	95.7	0.0	0.0	1	1.0	0.0	230.0	2	1.06	0.94				
	168	1	0.0	0.0	0.0	0.0	1	1.0	0.0	230.0	2	1.06	0.94				
	169	1	0.0	0.0	0.0	0.0	1	1.0	0.0	230.0	2	1.06	0.94				
	170	2	481.80000000000007	204.99999999999997	0.0	0.0	1	1.0	0.0	115.0	2	1.06	0.94				
	171	2	763.6	291.1	0.0	0.0	1	1.0	0.0	115.0	2	1.06	0.94				
	172	1	26.5	0.0	0.0	0.0	1	1.0	0.0	115.0	2	1.06	0.94				
	173	1	163.5	43.0	0.0	53.0	1	1.0	0.0	115.0	2	1.06	0.94				
	174	1	0.0	0.0	0.0	0.0	1	1.0	0.0	115.0	2	1.06	0.94				
	175	1	176.0	83.0	0.0	0.0	1	1.0	0.0	115.0	2	1.06	0.94				
	176	2	5.0	4.0	0.0	0.0	1	1.0	0.0	115.0	2	1.06	0.94				
	177	2	28.000000000000004	12.0	0.0	0.0	1	1.0	0.0	115.0	2	1.06	0.94				
	178	1	427.4	173.6	0.0	0.0	1	1.0	0.0	115.0	2	1.06	0.94				
	179	1	74.0	28.999999999999996	0.0	45.0	1	1.0	0.0	115.0	2	1.06	0.94				
	180	1	69.5	49.3	0.0	0.0	1	1.0	0.0	115.0	2	1.06	0.94				
	181	1	73.4	0.0	0.0	0.0	1	1.0	0.0	230.0	2	1.06	0.94				
	182	1	240.7	89.0	0.0	0.0	1	1.0	0.0	230.0	2	1.06	0.94				
	183	1	40.0	4.0	0.0	0.0	1	1.0	0.0	115.0	2	1.06	0.94				
	184	1	136.8	16.6	0.0	0.0	1	1.0	0.0	230.0	2	1.06	0.94				
	185	2	0.0	0.0	0.0	0.0	1	1.0	0.0	230.0	2	1.06	0.94				
	186	2	59.8	24.3	0.0	0.0	1	1.0	0.0	230.0	2	1.06	0.94				
	187	2	59.8	24.3	0.0	0.0	1	1.0	0.0	230.0	2	1.06	0.94				
	188	1	182.6	43.6	0.0	0.0	1	1.0	0.0	230.0	2	1.06	0.94				
	189	1	7.000000000000001	2.0	0.0	0.0	1	1.0	0.0	66.0	3	1.06	0.94				
	190	2	0.0	0.0	0.0	-150.0	1	1.0	0.0	345.0	3	1.06	0.94				
	191	2	488.99999999999994	53.0	0.0	0.0	1	1.0	0.0	230.0	3	1.06	0.94				
	192	1	800.0	72.0	0.0	0.0	1	1.0	0.0	230.0	3	1.06	0.94				
	193	1	0.0	0.0	0.0	0.0	1	1.0	0.0	66.0	3	1.06	0.94				
	194	1	0.0	0.0	0.0	0.0	1	1.0	0.0	345.0	3	1.06	0.94				
	195	1	0.0	0.0	0.0	0.0	1	1.0	0.0	345.0	3	1.06	0.94				
	196	1	10.0	3.0	0.0	0.0	1	1.0	0.0	115.0	3	1.06	0.94				
	197	1	43.0	14.000000000000002	0.0	0.0	1	1.0	0.0	115.0	3	1.06	0.94				
	198	2	64.0	21.0	0.0	0.0	1	1.0	0.0	115.0	3	1.06	0.94				
	199	1	35.0	12.0	0.0	0.0	1	1.0	0.0	115.0	3	1.06	0.94				
	200	1	27.0	12.0	0.0	0.0	1	1.0	0.0	115.0	3	1.06	0.94				
	201	1	41.0	14.000000000000002	0.0	0.0	1	1.0	0.0	66.0	1	1.06	0.94				
	202	1	38.0	13.0	0.0	0.0	1	1.0	0.0	66.0	3	1.06	0.94				
	203	1	42.0	14.000000000000002	0.0	0.0	1	1.0	0.0	115.0	3	1.06	0.94				
	204	1	72.0	24.0	0.0	0.0	1	1.0	0.0	66.0	3	1.06	0.94				
	205	1	0.0	-5.0	0.0	0.0	1	1.0	0.0	66.0	3	1.06	0.94				
	206	1	12.0	2.0	0.0	0.0	1	1.0	0.0	66.0	3	1.06	0.94				
	207	1	-21.0	-14.2	0.0	0.0	1	1.0	0.0	66.0	1	1.06	0.94				
	208	1	7.000000000000001	2.0	0.0	0.0	1	1.0	0.0	66.0	3	1.06	0.94				
	209	1	38.0	13.0	0.0	0.0	1	1.0	0.0	66.0	3	1.06	0.94				
	210	1	0.0	0.0	0.0	0.0	1	1.0	0.0	115.0	3	1.06	0.94				
	211	1	96.0	7.000000000000001	0.0	0.0	1	1.0	0.0	115.0	3	1.06	0.94				
	212	1	0.0	0.0	0.0	0.0	1	1.0	0.0	138.0	3	1.06	0.94				
	213	2	0.0	0.0	0.0	0.0	1	1.0	0.0	16.5	3	1.06	0.94				
	214	1	22.0	16.0	0.0	0.0	1	1.0	0.0	138.0	3	1.06	0.94				
	215	1	47.0	26.0	0.0	0.0	1	1.0	0.0	138.0	3	1.06	0.94				
	216	1	176.0	105.0	0.0	0.0	1	1.0	0.0	138.0	3	1.06	0.94				
	217	1	100.0	75.0	0.0	0.0	1	1.0	0.0	138.0	3	1.06	0.94				
	218	1	131.0	96.0	0.0	0.0	1	1.0	0.0	138.0	3	1.06	0.94				
	219	1	0.0	0.0	0.0	0.0	1	1.0	0.0	345.0	3	1.06	0.94				
	220	2	285.0	100.0	0.0	0.0	1	1.0	0.0	138.0	3	1.06	0.94				
	221	2	171.0	70.0	0.0	0.0	1	1.0	0.0	138.0	3	1.06	0.94				
...
];

%% generator data
%    bus    Pg    Qg    Qmax    Qmin    Vg    mBase    status    Pmax    Pmin    Pc1    Pc2    Qc1min    Qc1max    Qc2min    Qc2max    ramp_agc    ramp_10    ramp_30    ramp_q    apf
mpc.gen = [
	8	0.0	0.0	10.0	-10.0	1.0	100.0	1	0.0	0.0															
	10	0.0	0.0	20.0	-20.0	1.0	100.0	1	0.0	0.0															
	20	0.0	0.0	20.0	-20.0	1.0	100.0	1	0.0	0.0															
	63	0.0	0.0	25.0	-25.0	1.0	100.0	1	0.0	0.0															
	76	0.0	23.5	35.0	12.0	1.0	100.0	1	0.0	0.0															
	84	724.0	0.0	240.0	-240.0	1.0	100.0	1	1448.0	0.0															
	91	92.5	41.0	93.0	-11.0	1.0	100.0	1	185.0	0.0															
	92	180.0	0.0	153.0	-153.0	1.0	100.0	1	360.0	0.0															
	98	46.5	8.5	47.0	-30.0	1.0	100.0	1	93.0	0.0															
	108	98.5	26.5	77.0	-24.0	1.0	100.0	1	197.0	0.0															
	119	1020.5	260.5	1021.0000000000001	-500.0	1.0	100.0	1	2041.0	0.0															
	124	160.5	30.0	120.0	-60.0	1.0	100.0	1	321.0	0.0															
	125	0.0	87.5	200.0	-25.0	1.0	100.0	1	0.0	0.0															
	138	0.0	112.5	350.0	-125.0	1.0	100.0	1	0.0	0.0															
	141	148.5	12.5	75.0	-50.0	1.0	100.0	1	297.0	0.0															
	143	400.0	100.0	300.0	-100.0	1.0	100.0	1	800.0	0.0															
	146	45.5	10.0	35.0	-15.0	1.0	100.0	1	91.0	0.0															
	147	160.0	25.0	100.0	-50.0	1.0	100.0	1	320.0	0.0															
	149	138.5	12.5	50.0	-25.0	1.0	100.0	1	277.0	0.0															
	152	303.0	62.5	175.0	-50.0	1.0	100.0	1	606.0	0.0															
	153	121.0	20.0	90.0	-50.0	1.0	100.0	1	242.0	0.0															
	156	0.0	2.5	15.0	-10.0	1.0	100.0	1	0.0	0.0															
	170	165.0	25.0	90.0	-40.0	1.0	100.0	1	330.0	0.0															
	171	0.0	50.0	150.0	-50.0	1.0	100.0	1	0.0	0.0															
	176	139.0	22.5	90.0	-45.0	1.0	100.0	1	278.0	0.0															
	177	62.5	10.0	35.0	-15.0	1.0	100.0	1	125.0	0.0															
	185	125.0	15.0	80.0	-50.0	1.0	100.0	1	250.0	0.0															
	186	1232.5	150.0	400.0	-100.0	1.0	100.0	1	2465.0	0.0															
	187	811.9999999999999	150.0	400.0	-100.0	1.0	100.0	1	1623.9999999999998	0.0															
	190	257.5	0.0	258.0	-258.0	1.0	100.0	1	515.0	0.0															
	191	1070.0	0.0	1000.0	-1000.0	1.0	100.0	1	2140.0	0.0															
	198	215.0	0.0	215.0	-215.0	1.0	100.0	1	430.0	0.0															
	213	144.0	0.0	144.0	-144.0	1.0	100.0	1	288.0	0.0															
	220	229.99999999999997	0.0	60.0	-60.0	1.0	100.0	1	459.99999999999994	0.0															
	221	277.0	0.0	277.0	-277.0	1.0	100.0	1	554.0	0.0															
	222	261.5	0.0	262.0	-262.0	1.0	100.0	1	523.0	0.0															
	227	218.00000000000003	0.0	218.00000000000003	-218.00000000000003	1.0	100.0	1	436.00000000000006	0.0															
	230	229.0	0.0	229.0	-229.0	1.0	100.0	1	458.0	0.0															
	233	170.5	0.0	171.0	-171.0	1.0	100.0	1	341.0	0.0															
	236	440.5	0.0	300.0	-300.0	1.0	100.0	1	881.0	0.0															
	238	133.5	0.0	134.0	-134.0	1.0	100.0	1	267.0	0.0															
	239	310.5	0.0	311.0	-311.0	1.0	100.0	1	621.0	0.0															
	241	563.5	0.0	564.0	-564.0	1.0	100.0	1	1127.0	0.0															
	242	106.0	70.0	100.0	40.0	1.0	100.0	1	212.0	0.0															
	243	171.0	60.0	80.0	40.0	1.0	100.0	1	342.0	0.0															
	7001	284.0	0.0	210.0	-210.0	1.0	100.0	1	568.0	0.0															
	7002	335.0	0.0	280.0	-280.0	1.0	100.0	1	670.0	0.0															
	7003	700.5	0.0	420.0	-420.0	1.0	100.0	1	1401.0	0.0															
	7011	334.0	0.0	100.0	-100.0	1.0	100.0	1	668.0	0.0															
	7012	313.0	0.0	224.00000000000003	-224.00000000000003	1.0	100.0	1	626.0	0.0															
	7017	245.00000000000003	122.50000000000001	245.00000000000003	0.0	1.0	100.0	1	490.00000000000006	0.0															
	7023	110.00000000000001	55.00000000000001	110.00000000000001	0.0	1.0	100.0	1	220.00000000000003	0.0															
	7024	271.5	0.0	224.00000000000003	-224.00000000000003	1.0	100.0	1	543.0	0.0															
	7039	290.0	0.0	200.0	-200.0	1.0	100.0	1	580.0	0.0															
	7044	66.0	21.0	42.0	0.0	1.0	100.0	1	132.0	0.0															
	7049	359.0	5.0	10.0	0.0	1.0	100.0	1	718.0	0.0															
	7055	79.0	12.5	25.0	0.0	1.0	100.0	1	158.0	0.0															
	7057	167.0	0.0	90.0	-90.0	1.0	100.0	1	334.0	0.0															
	7061	878.5	0.0	150.0	-150.0	1.0	100.0	1	1757.0	0.0															
	7062	284.0	75.0	150.0	0.0	1.0	100.0	1	568.0	0.0															
	7071	101.49999999999999	43.5	87.0	0.0	1.0	100.0	1	202.99999999999997	0.0															
	7130	863.0000000000001	250.0	600.0	-100.0	1.0	100.0	1	1726.0000000000002	0.0															
	7139	1012.5	100.0	325.0	-125.0	1.0	100.0	1	2025.0	0.0															
	7166	312.0	50.0	300.0	-200.0	1.0	100.0	1	624.0	0.0															
	9002	0.0	0.0	2.0	-2.0	1.0	100.0	1	0.0	0.0															
	9051	0.0	0.0	17.35	-17.35	1.0	100.0	1	0.0	0.0															
	9053	0.0	0.015	12.83	-12.8	1.0	100.0	1	0.0	0.0															
	9054	42.0	0.0	38.0	-38.0	1.0	100.0	1	84.0	0.0															
	9055	18.5	0.0	6.0	-6.0	1.0	100.0	1	37.0	0.0															
];

%% branch data
%    f_bus    t_bus    r    x    b    rateA    rateB    rateC    ratio    angle    status    angmin    angmax
mpc.branch = [
	37	9001	6.001080738026434e-5	0.00046008285658261306	0.0015253340147488711	9900.0	63229.99999999999	63229.99999999999	1.0082	0.0	1	-29.999999999999996	29.999999999999996								
	9001	9005	0.000800093341993319	0.00348040603927272	0.0895637809536065	8215.0	8215.0	8215.0	0	0	1	-29.999999999999996	29.999999999999996								
	9001	9006	0.03750306972164025	0.5031215901056894	0.056405297732618	68.0	68.0	68.0	0.9668	0.0	1	-29.999999999999996	29.999999999999996								
	9001	9012	0.07817998094966522	0.7242288552128984	0.0015250421079535698	46.0	46.0	46.0	0.9796	0.0	1	-29.999999999999996	29.999999999999996								
	9005	9051	0.024506419287218733	0.4070967399139387	0.0015373411053093717	79.0	79.0	79.0	1.0435	0.0	1	-29.999999999999996	29.999999999999996								
	9005	9052	0.014982151459702976	0.3185276648580439	0.0015258284446099976	79.0	79.0	79.0	0.9391	0.0	1	-29.999999999999996	29.999999999999996								
	9005	9053	0.013336849754655359	0.3005619206888982	0.00153144632803634	78.0	78.0	78.0	1.0435	0.0	1	-29.999999999999996	29.999999999999996								
	9005	9054	0.0033853446856288638	0.15154357441109484	0.0015339540982893312	193.0	193.0	193.0	1.0435	0.0	1	-29.999999999999996	29.999999999999996								
	9005	9055	0.0943161227570872	0.7945087691686398	0.0015250864491917382	37.0	37.0	37.0	1.0435	0.0	1	-29.999999999999996	29.999999999999996								
	9006	9007	0.05703587060330824	0.25310928370358887	0.0015266528108238266	117.0	117.0	117.0	0	0	1	-29.999999999999996	29.999999999999996								
	9006	9003	0.13085228773594845	0.5804013829815721	0.0016547491142949538	59.0	59.0	59.0	0	0	1	-29.999999999999996	29.999999999999996								
	9006	9003	0.11149175458894578	0.49455298939554443	0.011741240511498113	59.0	59.0	59.0	0	0	1	-29.999999999999996	29.999999999999996								
	9012	9002	0.07406601797222967	0.42062042880505673	0.027642812394537083	67.0	67.0	67.0	0	0	1	-29.999999999999996	29.999999999999996								
	9012	9002	0.07524337820059557	0.4273065326850221	0.059767807299867144	67.0	67.0	67.0	0	0	1	-29.999999999999996	29.999999999999996								
	9002	9021	0.05341040996249066	0.0698810989978417	0.0015260551763667596	332.0	332.0	332.0	0	0	1	-29.999999999999996	29.999999999999996								
	9021	9023	0.434380268040693	0.8058110583146234	0.05902617333542891	21.0	21.0	21.0	0	0	1	-29.999999999999996	29.999999999999996								
	9021	9022	0.1556945236860694	1.016111542711951	0.001536517684736839	11.0	11.0	11.0	1.0	0.0	1	-29.999999999999996	29.999999999999996								
	9002	9024	0.15569434712299637	1.0161116275459672	0.002062886702333931	9.0	9.0	9.0	1.0	0.0	1	-29.999999999999996	29.999999999999996								
	9023	9025	0.15569485661616242	1.0161114011835934	0.001550292194060088	8.0	8.0	8.0	1.0	0.0	1	-29.999999999999996	29.999999999999996								
	9023	9026	0.15569420790037963	1.016111694545913	0.0015290878838061333	8.0	8.0	8.0	1.0	0.0	1	-29.999999999999996	29.999999999999996								
	9007	9071	0.15569461316298072	1.0161114921672205	0.01105982329810754	10.0	10.0	10.0	1.0	0.0	1	-29.999999999999996	29.999999999999996								
	9007	9072	0.15569470543252995	1.0161114464536278	0.0015348487339549906	15.0	15.0	15.0	1.0	0.0	1	-29.999999999999996	29.999999999999996								
	9007	9003	0.05592451343697656	0.24720277874404842	0.0015453454429415895	115.99999999999999	115.99999999999999	115.99999999999999	0	0	1	-29.999999999999996	29.999999999999996								
	9003	9031	0.15569427860492732	1.0161116606982712	0.0015714781130096824	7.000000000000001	7.000000000000001	7.000000000000001	1.0	0.0	1	-29.999999999999996	29.999999999999996								
	9003	9032	0.15569435494307318	1.0161116238963546	0.052577421750447495	6.0	6.0	6.0	1.0	0.0	1	-29.999999999999996	29.999999999999996								
	9003	9033	0.1556943505050209	1.0161116259186793	0.04509144064645759	7.000000000000001	7.000000000000001	7.000000000000001	1.0	0.0	1	-29.999999999999996	29.999999999999996								
	9003	9044	0.0736975460847222	0.06344901533342441	0.0015262911327423396	302.0	302.0	302.0	0	0	1	-29.999999999999996	29.999999999999996								
	9044	9004	0.038233493635028155	0.02887466886895882	0.0015380631646929534	611.0	611.0	611.0	0	0	1	-29.999999999999996	29.999999999999996								
	9004	9041	0.155694528549792	1.0161115353420178	0.015197815785441505	12.0	12.0	12.0	1.0	0.0	1	-29.999999999999996	29.999999999999996								
	9004	9042	0.15569426490189064	1.0161116677012654	0.0015277484795356842	6.0	6.0	6.0	1.0	0.0	1	-29.999999999999996	29.999999999999996								
	9004	9043	0.15569440472079935	1.0161115567802361	0.0015246670554097713	18.0	18.0	18.0	1.0	0.0	1	-29.999999999999996	29.999999999999996								
	9003	9034	0.15569436240057655	1.016111596757447	0.0015260827970582315	21.0	21.0	21.0	1.0	0.0	1	-29.999999999999996	29.999999999999996								
	9003	9035	0.15569454558838394	1.0161115322525471	0.001526851183422762	9.0	9.0	9.0	1.0	0.0	1	-29.999999999999996	29.999999999999996								
	9003	9036	0.1556945334284391	1.0161112903753438	0.038322742123364895	18.0	18.0	18.0	1.0	0.0	1	-29.999999999999996	29.999999999999996								
	9003	9037	0.15569437296972538	1.0161116135656891	0.001526865416984818	12.0	12.0	12.0	1.0	0.0	1	-29.999999999999996	29.999999999999996								
	9003	9038	0.15569439365289528	1.0161116030090123	0.016364907914692403	10.0	10.0	10.0	1.0	0.0	1	-29.999999999999996	29.999999999999996								
	9012	9121	0.21572933131194805	0.9071381160132334	0.00735986311841114	28.999999999999996	28.999999999999996	28.999999999999996	0	0	1	-29.999999999999996	29.999999999999996								
	9053	9533	0.08461116482060202	0.7530680252377472	0.0015244110585562539	40.0	40.0	40.0	0.9583	0.0	1	-29.999999999999996	29.999999999999996								
	1	5	0.0009963483127164872	0.005978089876014912	0.13783810942831348	4823.0	4823.0	4823.0	0	0	1	-29.999999999999996	29.999999999999996								
	2	6	0.0009982095074343503	0.008983885564190537	0.0015279231029384842	3240.0	3240.0	3240.0	0	0	1	-29.999999999999996	29.999999999999996								
	2	8	0.005960960361656539	0.026824321604834736	0.02086611376206343	1061.0	1061.0	1061.0	0	0	1	-29.999999999999996	29.999999999999996								
	3	7	1.3259905822022188e-6	0.0029999539897255004	0.05623322386573904	9778.0	9778.0	9778.0	0	0	1	-29.999999999999996	29.999999999999996								
	3	19	0.007800062997751779	0.06727554181767224	0.3051820037862465	423.00000000000006	423.00000000000006	423.00000000000006	0	0	1	-29.999999999999996	29.999999999999996								
	3	150	0.0010000730465693618	0.007000511325390312	0.1795239981239881	4149.0	4149.0	4149.0	0	0	1	-29.999999999999996	29.999999999999996								
	4	16	0.0020048652728482204	0.019046219832239076	1.109632548260846	1536.0	1536.0	1536.0	0	0	1	-29.999999999999996	29.999999999999996								
	5	9	0.005958105443301586	0.028797509611506445	0.0015485685185035866	991.0	991.0	991.0	0	0	1	-29.999999999999996	29.999999999999996								
	7	12	0.0009968686133078346	0.008971817516207658	0.15777179577288483	3240.0	3240.0	3240.0	0	0	1	-29.999999999999996	29.999999999999996								
	7	131	0.0009978986705319322	0.006985290692980416	0.0015484498096647226	4149.0	4149.0	4149.0	0	0	1	-29.999999999999996	29.999999999999996								
	8	11	0.013022264633824197	0.059601903199196324	0.061833232492815325	482.0	482.0	482.0	0	0	1	-29.999999999999996	29.999999999999996								
	8	14	0.012984522734749246	0.04194999642469856	0.027155504413515354	668.0	668.0	668.0	0	0	1	-29.999999999999996	29.999999999999996								
	9	11	0.005997735174019456	0.026989808261684966	0.001540148486427985	1061.0	1061.0	1061.0	0	0	1	-29.999999999999996	29.999999999999996								
	11	13	0.008001596155984959	0.034006783637418526	0.0015273904926628116	840.0	840.0	840.0	0	0	1	-29.999999999999996	29.999999999999996								
	12	21	0.0019753090635415585	0.014814817961601123	0.1050041217034405	1939.0	1939.0	1939.0	0	0	1	-29.999999999999996	29.999999999999996								
	13	20	0.006008962991035671	0.03405079021856639	0.014782534769589345	850.0	850.0	850.0	0	0	1	-29.999999999999996	29.999999999999996								
	14	15	0.013914585979293894	0.04174375777818218	0.0015263970875918893	663.0	663.0	663.0	0	0	1	-29.999999999999996	29.999999999999996								
	15	37	0.07062440323191464	0.26945905621215877	0.1913682728918105	114.99999999999999	114.99999999999999	114.99999999999999	0	0	1	-29.999999999999996	29.999999999999996								
	15	89	0.09916071278574398	0.2484025752327276	0.0015307043999853603	110.00000000000001	110.00000000000001	110.00000000000001	0	0	1	-29.999999999999996	29.999999999999996								
	15	90	0.09779924167515681	0.369803248119652	0.11866491174829294	79.0	79.0	79.0	0	0	1	-29.999999999999996	29.999999999999996								
	16	42	0.0020391006432553095	0.022430106632347378	1.292968733481642	1328.0	1328.0	1328.0	0	0	1	-29.999999999999996	29.999999999999996								
	19	21	0.0020147646585874407	0.01813288190201116	0.04409255429481739	1620.0	1620.0	1620.0	0	0	1	-29.999999999999996	29.999999999999996								
	19	87	0.013482260327453645	0.08296775456084651	0.25993749103874725	362.0	362.0	362.0	0	0	1	-29.999999999999996	29.999999999999996								
	20	22	0.01600139564145844	0.03300287850124523	0.001591974485654248	800.0	800.0	800.0	0	0	1	-29.999999999999996	29.999999999999996								
	20	27	0.06961324387632326	0.18765308881642118	0.05571115968583971	148.0	148.0	148.0	0	0	1	-29.999999999999996	29.999999999999996								
	21	24	0.004014804443995363	0.03412583771949903	0.38756209236225564	857.0	857.0	857.0	0	0	1	-29.999999999999996	29.999999999999996								
	22	23	0.051977952103613424	0.11095293692858652	0.034577542198236604	240.0	240.0	240.0	0	0	1	-29.999999999999996	29.999999999999996								
	23	25	0.019040999304718434	0.03908415646060991	0.0015268926402316264	677.0	677.0	677.0	0	0	1	-29.999999999999996	29.999999999999996								
	24	319	0.006964459208208322	0.06765474482814336	0.15687983417802076	430.0	430.0	430.0	0	0	1	-29.999999999999996	29.999999999999996								
	25	26	0.03605345586766167	0.0711054268555476	0.12436090078418224	369.0	369.0	369.0	0	0	1	-29.999999999999996	29.999999999999996								
	26	27	0.04466462406524278	0.1191056638895908	0.06829372738737476	229.0	229.0	229.0	0	0	1	-29.999999999999996	29.999999999999996								
	26	320	0.04315725668830504	0.13047542592409492	0.00153414421919155	215.0	215.0	215.0	0	0	1	-29.999999999999996	29.999999999999996								
	33	34	0.0005844963470900116	0.06298202446232096	0.007962546602598238	466.0	466.0	466.0	1.0	0.0	1	-29.999999999999996	29.999999999999996								
	33	38	0.0024994335483945777	0.011997281028994618	0.05703361414207365	2393.0	2393.0	2393.0	0	0	1	-29.999999999999996	29.999999999999996								
	33	40	0.005974354298492783	0.028876045729801833	0.001527527760514807	991.0	991.0	991.0	0	0	1	-29.999999999999996	29.999999999999996								
	33	41	0.006925420542003804	0.04254186887752775	0.025607578212532286	674.0	674.0	674.0	0	0	1	-29.999999999999996	29.999999999999996								
	34	42	0.0009989328968125592	0.007991463171789552	0.03195913951323503	3639.0	3639.0	3639.0	0	0	1	-29.999999999999996	29.999999999999996								
	35	72	0.012103436797402977	0.060517183723733124	0.0015544075229798125	480.0	480.0	480.0	0	0	1	-29.999999999999996	29.999999999999996								
	35	76	0.006023118088056813	0.014053942204675127	0.24389486942033417	1926.0000000000002	1926.0000000000002	1926.0000000000002	0	0	1	-29.999999999999996	29.999999999999996								
	35	77	0.010026535755982216	0.02907695368127939	0.021496686756621773	957.0	957.0	957.0	0	0	1	-29.999999999999996	29.999999999999996								
	36	88	0.0040288182202437555	0.02719452294474103	0.001527176944253488	1075.0	1075.0	1075.0	0	0	1	-29.999999999999996	29.999999999999996								
	37	38	0.008007707656848335	0.04704528234902425	0.14814238652695244	616.0	616.0	616.0	0	0	1	-29.999999999999996	29.999999999999996								
	37	40	0.02196988703805651	0.06391239860373249	0.001536028064036483	434.0	434.0	434.0	0	0	1	-29.999999999999996	29.999999999999996								
	37	41	0.010063807954107683	0.03622970836918822	0.19839624233145498	786.0	786.0	786.0	0	0	1	-29.999999999999996	29.999999999999996								
	37	49	0.017303185674619755	0.08244459086846104	0.06658194024186877	355.0	355.0	355.0	0	0	1	-29.999999999999996	29.999999999999996								
	37	89	0.10464824381444665	0.2605945877132782	0.21051008901162607	108.0	108.0	108.0	0	0	1	-29.999999999999996	29.999999999999996								
	37	90	0.04771493936797525	0.1289318486530972	0.0015337509621462882	217.0	217.0	217.0	0	0	1	-29.999999999999996	29.999999999999996								
	38	41	0.008004372682786714	0.037020223568597334	0.03172517898718317	775.0	775.0	775.0	0	0	1	-29.999999999999996	29.999999999999996								
	38	43	0.03199618584889963	0.0869896316417709	0.06831463959603053	317.0	317.0	317.0	0	0	1	-29.999999999999996	29.999999999999996								
	39	42	0.0006004013460842734	0.006404281021335554	0.36003163580548647	4564.0	4564.0	4564.0	0	0	1	-29.999999999999996	29.999999999999996								
	40	48	0.026004044663602167	0.15402395057957563	0.014159551396889168	188.0	188.0	188.0	0	0	1	-29.999999999999996	29.999999999999996								
	41	42	0.0001238455454039164	0.02899216511496777	0.0015268541786854686	1011.9999999999999	1011.9999999999999	1011.9999999999999	1.0	0.0	1	-29.999999999999996	29.999999999999996								
	41	49	0.0648610276855184	0.19059162864344034	0.2783445940070818	146.0	146.0	146.0	0	0	1	-29.999999999999996	29.999999999999996								
	41	51	0.030946273140076877	0.08884575201878339	0.0015295174116173999	312.0	312.0	312.0	0	0	1	-29.999999999999996	29.999999999999996								
	42	46	0.0020114990201603503	0.014080493164583435	0.8483784371437967	2075.0	2075.0	2075.0	0	0	1	-29.999999999999996	29.999999999999996								
	43	44	0.02638826678004549	0.07307520008976275	0.06598871324796493	384.0	384.0	384.0	0	0	1	-29.999999999999996	29.999999999999996								
	43	48	0.09785149286963242	0.26986410704138686	0.001529935250320808	106.0	106.0	106.0	0	0	1	-29.999999999999996	29.999999999999996								
	43	53	0.012998719644254631	0.03899615892155851	0.0015255491929579046	714.0	714.0	714.0	0	0	1	-29.999999999999996	29.999999999999996								
	44	47	0.027681868324921147	0.0861213684189873	0.10584429167856711	333.0	333.0	333.0	0	0	1	-29.999999999999996	29.999999999999996								
	44	54	0.0277485314997278	0.08324559417409846	0.03536164884834885	332.0	332.0	332.0	0	0	1	-29.999999999999996	29.999999999999996								
	45	60	0.007047979796048925	0.04128102418308553	0.3118668066597269	706.0	706.0	706.0	0	0	1	-29.999999999999996	29.999999999999996								
	45	74	0.009055688513881137	0.054334131469315365	0.5405879702185107	536.0	536.0	536.0	0	0	1	-29.999999999999996	29.999999999999996								
	46	81	0.004988251697409174	0.041901314744397	0.6963065225305629	694.0	694.0	694.0	0	0	1	-29.999999999999996	29.999999999999996								
	47	73	0.05184983151301073	0.14458125984840284	0.32572678273955086	191.0	191.0	191.0	0	0	1	-29.999999999999996	29.999999999999996								
	47	113	0.04424675068390359	0.12142131508463949	0.03457071732333805	234.0	234.0	234.0	0	0	1	-29.999999999999996	29.999999999999996								
	48	107	0.025267368463906092	0.06266307352689196	0.12513172007491175	438.99999999999994	438.99999999999994	438.99999999999994	0	0	1	-29.999999999999996	29.999999999999996								
	49	51	0.030897216841789442	0.09368833376911448	0.05798679715056386	297.0	297.0	297.0	0	0	1	-29.999999999999996	29.999999999999996								
	51	52	0.0374919051823964	0.11044912640906772	0.0015356143374275467	254.99999999999997	254.99999999999997	254.99999999999997	0	0	1	-29.999999999999996	29.999999999999996								
	52	55	0.027137408396052047	0.08040713558302079	0.011073322386877141	348.0	348.0	348.0	0	0	1	-29.999999999999996	29.999999999999996								
	53	54	0.02495091457257084	0.07285667022111249	0.0015247866520038474	381.0	381.0	381.0	0	0	1	-29.999999999999996	29.999999999999996								
	54	55	0.03527074856194535	0.10379677300867417	0.058486167333386185	270.0	270.0	270.0	0	0	1	-29.999999999999996	29.999999999999996								
	55	57	0.06467461506841057	0.16815399499070013	0.0714317250720114	162.0	162.0	162.0	0	0	1	-29.999999999999996	29.999999999999996								
	57	58	0.04659205103967413	0.08102965392720796	0.05023993641657645	318.0	318.0	318.0	0	0	1	-29.999999999999996	29.999999999999996								
	57	63	0.13808764350924216	0.46637152636031887	0.04393554971608088	53.0	53.0	53.0	0	0	1	-29.999999999999996	29.999999999999996								
	58	59	0.008988245401655805	0.025966042263527424	0.0015258497290190998	1067.0	1067.0	1067.0	0	0	1	-29.999999999999996	29.999999999999996								
	59	61	0.001984097341310128	0.01289663271434855	0.42525491391804443	2231.0	2231.0	2231.0	0	0	1	-29.999999999999996	29.999999999999996								
	60	62	0.008892147507269509	0.06422106289847963	0.4360543130898791	447.0	447.0	447.0	0	0	1	-29.999999999999996	29.999999999999996								
	62	64	0.01575362623107035	0.1033831836018718	0.15199113804315173	277.0	277.0	277.0	0	0	1	-29.999999999999996	29.999999999999996								
	62	144	0.0010018680483475921	0.007013076337671637	0.0044017820250794055	4149.0	4149.0	4149.0	0	0	1	-29.999999999999996	29.999999999999996								
	63	526	0.025832922927874938	0.16767034121532445	0.01048204192261342	169.0	169.0	169.0	0	0	1	-29.999999999999996	29.999999999999996								
	69	211	0.052504119505966326	0.23884225027759678	0.12499913042355498	124.0	124.0	124.0	0	0	1	-29.999999999999996	29.999999999999996								
	69	79	0.050928545938735054	0.1567800311667437	0.06399818440718788	178.0	178.0	178.0	0	0	1	-29.999999999999996	29.999999999999996								
	70	71	0.033144756502664754	0.10357736569845223	0.05399389012518052	280.0	280.0	280.0	0	0	1	-29.999999999999996	29.999999999999996								
	70	528	0.020355300632412504	0.12559220096862325	0.00831605899371464	235.0	235.0	235.0	0	0	1	-29.999999999999996	29.999999999999996								
	71	72	0.035889995415207945	0.1305997041561983	0.0015407614732709585	216.0	216.0	216.0	0	0	1	-29.999999999999996	29.999999999999996								
	71	73	0.03410673371035175	0.09931078358728823	0.0879143500116703	281.0	281.0	281.0	0	0	1	-29.999999999999996	29.999999999999996								
	72	77	0.01792976469576117	0.08666052867268129	0.053354992532249734	331.0	331.0	331.0	0	0	1	-29.999999999999996	29.999999999999996								
	72	531	0.024476025399322147	0.1845262611098125	0.19224838225333354	151.0	151.0	151.0	0	0	1	-29.999999999999996	29.999999999999996								
	73	76	0.021009750927103766	0.05702646672313958	0.08471090173551071	483.0	483.0	483.0	0	0	1	-29.999999999999996	29.999999999999996								
	73	79	0.01804207664309574	0.0521215546785184	0.0015260441564765913	534.0	534.0	534.0	0	0	1	-29.999999999999996	29.999999999999996								
	74	88	0.004010538579623608	0.027071135365322022	0.055957972990230094	1075.0	1075.0	1075.0	0	0	1	-29.999999999999996	29.999999999999996								
	74	562	0.028778794566107477	0.20255842191870338	0.3590386525681928	145.0	145.0	145.0	0	0	1	-29.999999999999996	29.999999999999996								
	76	77	0.015890678782585876	0.04270619919957039	0.0015378098301763348	640.0	640.0	640.0	0	0	1	-29.999999999999996	29.999999999999996								
	77	78	0.001000578935618712	0.006003473613354829	0.0015325003932126784	4823.0	4823.0	4823.0	0	0	1	-29.999999999999996	29.999999999999996								
	77	80	0.013936287332115008	0.06968143615943544	0.05422459998913971	411.00000000000006	411.00000000000006	411.00000000000006	0	0	1	-29.999999999999996	29.999999999999996								
	77	552	0.0897961802822376	0.2696908750263946	0.14133697358560068	104.0	104.0	104.0	0	0	1	-29.999999999999996	29.999999999999996								
	77	609	0.07747042435361343	0.2107155873029501	0.2998355845808064	130.0	130.0	130.0	0	0	1	-29.999999999999996	29.999999999999996								
	78	79	0.0060130382188865366	0.022047806794613323	0.05933276644212754	1287.0	1287.0	1287.0	0	0	1	-29.999999999999996	29.999999999999996								
	78	84	0.0001903691559956465	0.035944845246243876	0.001526058711938627	815.0	815.0	815.0	0	0	1	-29.999999999999996	29.999999999999996								
	79	211	0.09797731736753397	0.3711261493328775	0.001526733448525906	76.0	76.0	76.0	0	0	1	-29.999999999999996	29.999999999999996								
	80	211	0.02099433207960326	0.10210879543570303	0.1862660494816526	269.0	269.0	269.0	0	0	1	-29.999999999999996	29.999999999999996								
	81	194	0.0034951323054119975	0.03295410442091394	0.4846502569919186	884.0	884.0	884.0	0	0	1	-29.999999999999996	29.999999999999996								
	81	195	0.003502273290300487	0.03302143374707775	0.5531215576739892	884.0	884.0	884.0	0	0	1	-29.999999999999996	29.999999999999996								
	85	86	0.007960785952519119	0.06368628657467415	0.09505947708266356	455.0	455.0	455.0	0	0	1	-29.999999999999996	29.999999999999996								
	86	87	0.011600131695259853	0.08990101808622848	0.15998380217737282	313.0	313.0	313.0	0	0	1	-29.999999999999996	29.999999999999996								
	86	323	0.00605077724348036	0.04840621752128766	0.15951889975885108	607.0	607.0	607.0	0	0	1	-29.999999999999996	29.999999999999996								
	89	91	0.046936728364266	0.11883979902239948	0.0015311601928349238	229.99999999999997	229.99999999999997	229.99999999999997	0	0	1	-29.999999999999996	29.999999999999996								
	90	92	0.030838574813361747	0.167684703839644	0.12526094262629106	166.0	166.0	166.0	0	0	1	-29.999999999999996	29.999999999999996								
	91	94	0.10305138043849074	0.2607199857443832	0.01628006825505329	108.0	108.0	108.0	0	0	1	-29.999999999999996	29.999999999999996								
	91	97	0.02180835554681421	0.07632924463363328	0.02763862027940353	367.0	367.0	367.0	0	0	1	-29.999999999999996	29.999999999999996								
	92	103	0.022039775738064385	0.16703828488234987	0.018196323908726143	202.0	202.0	202.0	0	0	1	-29.999999999999996	29.999999999999996								
	92	105	0.017078198056519008	0.09242318825057974	0.0464756143306221	314.0	314.0	314.0	0	0	1	-29.999999999999996	29.999999999999996								
	94	97	0.2715431355979027	0.41708243489721003	0.11391479425046477	57.99999999999999	57.99999999999999	57.99999999999999	0	0	1	-29.999999999999996	29.999999999999996								
	97	100	0.022018296329831266	0.05304407748764048	0.012626587843091064	512.0	512.0	512.0	0	0	1	-29.999999999999996	29.999999999999996								
	97	102	0.03773149594529233	0.09134993740171476	0.017766852483774017	295.0	295.0	295.0	0	0	1	-29.999999999999996	29.999999999999996								
	97	103	0.047751774404564934	0.12136909261644352	0.009207624880366111	224.00000000000003	224.00000000000003	224.00000000000003	0	0	1	-29.999999999999996	29.999999999999996								
	98	100	0.023867136283527834	0.0636456966463987	0.051935249026801154	430.0	430.0	430.0	0	0	1	-29.999999999999996	29.999999999999996								
	98	102	0.03474272713563329	0.12364323336169575	0.011055229092440551	234.0	234.0	234.0	0	0	1	-29.999999999999996	29.999999999999996								
	99	107	0.054278257441012855	0.13825593875903439	0.0015278034837651415	202.99999999999997	202.99999999999997	202.99999999999997	0	0	1	-29.999999999999996	29.999999999999996								
	99	108	0.0019998504592077825	0.003999700918405855	0.00152668074321636	6559.0	6559.0	6559.0	0	0	1	-29.999999999999996	29.999999999999996								
	99	109	0.04121613671623716	0.32423338183643097	0.11148030292092198	83.0	83.0	83.0	0	0	1	-29.999999999999996	29.999999999999996								
	99	110	0.049797821436815506	0.1732964117332505	0.010245400981588037	163.0	163.0	163.0	0	0	1	-29.999999999999996	29.999999999999996								
	100	102	0.016018365016366845	0.038043616897815186	0.0023346285758783013	712.0	712.0	712.0	0	0	1	-29.999999999999996	29.999999999999996								
	102	104	0.042853379926185146	0.06378177475448074	0.027176909604796445	381.0	381.0	381.0	0	0	1	-29.999999999999996	29.999999999999996								
	103	105	0.0189387418708884	0.0618001048906095	0.15816730081607655	453.0	453.0	453.0	0	0	1	-29.999999999999996	29.999999999999996								
	104	108	0.07551999143184704	0.1291789321661107	0.026977101104182628	195.0	195.0	195.0	0	0	1	-29.999999999999996	29.999999999999996								
	104	322	0.042160828610291724	0.11881687982239376	0.03803883812021119	223.0	223.0	223.0	0	0	1	-29.999999999999996	29.999999999999996								
	105	107	0.012048445506443201	0.08835526362995147	0.011665990236843048	331.0	331.0	331.0	0	0	1	-29.999999999999996	29.999999999999996								
	105	110	0.15628495811160772	0.3981781969472843	0.045768860133383736	69.0	69.0	69.0	0	0	1	-29.999999999999996	29.999999999999996								
	108	324	0.07499259613250252	0.2107899985762365	0.022428332794630593	133.0	133.0	133.0	0	0	1	-29.999999999999996	29.999999999999996								
	109	110	0.07008100536850058	0.18421292513095944	0.004166321193473554	149.0	149.0	149.0	0	0	1	-29.999999999999996	29.999999999999996								
	109	113	0.10140686896543903	0.2778548117362283	0.028255405082427066	101.0	101.0	101.0	0	0	1	-29.999999999999996	29.999999999999996								
	109	114	0.10882285572610374	0.3923611816834283	0.10770736369987295	72.0	72.0	72.0	0	0	1	-29.999999999999996	29.999999999999996								
	110	112	0.14159154481644767	0.4028377971644751	0.008715646519194773	69.0	69.0	69.0	0	0	1	-29.999999999999996	29.999999999999996								
	112	114	0.01698060207235027	0.041952075679096305	0.06432207347092127	648.0	648.0	648.0	0	0	1	-29.999999999999996	29.999999999999996								
	115	122	0.0036265462932875965	0.02004674198829185	0.0015419042605187884	1451.0	1451.0	1451.0	0	0	1	-29.999999999999996	29.999999999999996								
	116	120	0.0021266961271433475	0.11154373705998391	0.0015292649749486234	280.0	280.0	280.0	0	0	1	-29.999999999999996	29.999999999999996								
	117	118	9.998955106012706e-5	0.0017998119190054194	0.061444714155615615	9900.0	16271.0	16271.0	0	0	1	-29.999999999999996	29.999999999999996								
	118	119	0.00010814489416818595	0.027092180889923753	0.051631517808561504	1083.0	1083.0	1083.0	0	0	1	-29.999999999999996	29.999999999999996								
	118	1201	0.054575008259255535	0.6061612968371726	0.0015377081716369582	48.0	48.0	48.0	0	0	1	-29.999999999999996	29.999999999999996								
	1201	120	0.15569426751625484	1.0161117137946136	0.038495723988365385	80.0	80.0	80.0	0	0	1	-29.999999999999996	29.999999999999996								
	118	121	0.053542122853022414	0.6004437833305994	0.0015322896550941285	101.0	101.0	101.0	0	0	1	-29.999999999999996	29.999999999999996								
	119	120	0.0001692316255564349	0.03389063961221017	0.11559225397393687	866.0	866.0	866.0	0	0	1	-29.999999999999996	29.999999999999996								
	119	121	0.0004985395105726047	0.05816721323114234	0.0015270658320669281	504.0	504.0	504.0	0	0	1	-29.999999999999996	29.999999999999996								
	122	123	0.08046491401140052	0.23342790982241005	0.03419324045903448	119.0	119.0	119.0	0	0	1	-29.999999999999996	29.999999999999996								
	122	125	0.09555450187503133	0.3633050940794427	0.17141427692058686	78.0	78.0	78.0	0	0	1	-29.999999999999996	29.999999999999996								
	123	124	0.036205062734046514	0.10821290970956841	0.11802791466543724	259.0	259.0	259.0	0	0	1	-29.999999999999996	29.999999999999996								
	123	125	0.04709507562517514	0.13990007592362314	0.23255153558996064	197.0	197.0	197.0	0	0	1	-29.999999999999996	29.999999999999996								
	125	126	0.0005958149015840809	0.01956258892626124	0.02701243896132639	1489.0	1489.0	1489.0	0	0	1	-29.999999999999996	29.999999999999996								
	126	127	0.005664605619318977	0.03888415738072946	0.3474273961870398	717.0	717.0	717.0	1.0	0.0	1	-29.999999999999996	29.999999999999996								
	126	129	0.012893582534024598	0.12400262705667311	0.24445171424838558	264.0	264.0	264.0	1.0	0.0	1	-29.999999999999996	29.999999999999996								
	126	132	0.019681416434267036	0.16778896495684822	0.3259654072283905	173.0	173.0	173.0	1.0	0.0	1	-29.999999999999996	29.999999999999996								
	126	157	0.005050779519805044	0.05050779453339032	0.44878019593457197	584.0	584.0	584.0	1.0	0.0	1	-29.999999999999996	29.999999999999996								
	126	158	0.007816185906005416	0.05461179194191126	0.3229125490307561	540.0	540.0	540.0	1.0	0.0	1	-29.999999999999996	29.999999999999996								
	126	169	0.01800522536975902	0.1262548231257092	0.1747476868374357	250.99999999999997	250.99999999999997	250.99999999999997	1.0	0.0	1	-29.999999999999996	29.999999999999996								
	127	128	0.005913388403106286	0.05783093313767327	0.10211065319620741	505.99999999999994	505.99999999999994	505.99999999999994	0	0	1	-29.999999999999996	29.999999999999996								
	127	134	0.004929636487192508	0.0338032217186174	0.17949181997732122	864.0	864.0	864.0	0	0	1	-29.999999999999996	29.999999999999996								
	127	168	0.006036080984479316	0.05903082492238712	0.12352777725706361	505.99999999999994	505.99999999999994	505.99999999999994	0	0	1	-29.999999999999996	29.999999999999996								
	128	130	0.00786673809123211	0.07796138721271641	0.14202532961350528	378.0	378.0	378.0	0	0	1	-29.999999999999996	29.999999999999996								
	128	133	0.0026050127461322474	0.019337209986457982	0.0015254990844933544	1507.0	1507.0	1507.0	0	0	1	-29.999999999999996	29.999999999999996								
	129	130	0.007633391474110611	0.07553039603507593	0.13819182801184127	389.0	389.0	389.0	0	0	1	-29.999999999999996	29.999999999999996								
	129	133	0.0021236453980513917	0.01880943064849064	0.039431529307338106	1568.0	1568.0	1568.0	0	0	1	-29.999999999999996	29.999999999999996								
...
];

%%-----  OPF Data  -----%%
%% cost data
%    1    startup    shutdown    n    x1    y1    ...    xn    yn
%    2    startup    shutdown    n    c(n-1)    ...    c0
mpc.gencost = [
	2	0.0	0.0	2	0.0	0.0
	2	0.0	0.0	2	0.0	0.0
	2	0.0	0.0	2	0.0	0.0
	2	0.0	0.0	2	0.0	0.0
	2	0.0	0.0	2	0.0	0.0
	2	0.0	0.0	2	22.409835000000005	0.0
	2	0.0	0.0	2	46.100054	0.0
	2	0.0	0.0	2	54.164939	0.0
	2	0.0	0.0	2	27.238416	0.0
	2	0.0	0.0	2	38.430722	0.0
	2	0.0	0.0	2	7.698908	0.0
	2	0.0	0.0	2	26.754128	0.0
	2	0.0	0.0	2	0.0	0.0
	2	0.0	0.0	2	0.0	0.0
	2	0.0	0.0	2	30.597916	0.0
	2	0.0	0.0	2	30.758666000000005	0.0
	2	0.0	0.0	2	19.292281	0.0
	2	0.0	0.0	2	49.861855	0.0
	2	0.0	0.0	2	35.842363	0.0
	2	0.0	0.0	2	34.955965	0.0
	2	0.0	0.0	2	22.762722	0.0
	2	0.0	0.0	2	0.0	0.0
	2	0.0	0.0	2	35.375974	0.0
	2	0.0	0.0	2	0.0	0.0
	2	0.0	0.0	2	33.868524	0.0
	2	0.0	0.0	2	29.031265000000005	0.0
	2	0.0	0.0	2	28.391517	0.0
	2	0.0	0.0	2	1.000203	0.0
	2	0.0	0.0	2	27.278538000000005	0.0
	2	0.0	0.0	2	49.15571	0.0
	2	0.0	0.0	2	24.062655	0.0
	2	0.0	0.0	2	31.016664000000002	0.0
	2	0.0	0.0	2	49.721799000000004	0.0
	2	0.0	0.0	2	21.291665	0.0
	2	0.0	0.0	2	31.437031	0.0
	2	0.0	0.0	2	50.842869	0.0
	2	0.0	0.0	2	28.01046	0.0
	2	0.0	0.0	2	39.828572	0.0
	2	0.0	0.0	2	35.650779	0.0
	2	0.0	0.0	2	32.621266	0.0
	2	0.0	0.0	2	39.657688	0.0
	2	0.0	0.0	2	41.223312	0.0
	2	0.0	0.0	2	39.064721	0.0
	2	0.0	0.0	2	116.939409	0.0
	2	0.0	0.0	2	34.336562	0.0
	2	0.0	0.0	2	38.274878	0.0
	2	0.0	0.0	2	23.466762	0.0
	2	0.0	0.0	2	7.509959	0.0
	2	0.0	0.0	2	26.682965	0.0
	2	0.0	0.0	2	28.434868	0.0
	2	0.0	0.0	2	35.126651	0.0
	2	0.0	0.0	2	51.062397000000004	0.0
	2	0.0	0.0	2	29.992015	0.0
	2	0.0	0.0	2	103.987496	0.0
	2	0.0	0.0	2	38.825689	0.0
	2	0.0	0.0	2	6.843072000000001	0.0
	2	0.0	0.0	2	29.772562000000004	0.0
	2	0.0	0.0	2	62.42710300000001	0.0
	2	0.0	0.0	2	20.811515	0.0
	2	0.0	0.0	2	26.50789	0.0
	2	0.0	0.0	2	31.587517	0.0
	2	0.0	0.0	2	29.759924	0.0
	2	0.0	0.0	2	36.179055	0.0
	2	0.0	0.0	2	36.908367	0.0
	2	0.0	0.0	2	0.0	0.0
	2	0.0	0.0	2	0.0	0.0
	2	0.0	0.0	2	0.0	0.0
	2	0.0	0.0	2	32.961473	0.0
	2	0.0	0.0	2	94.758209	0.0
];

